Casos/pglib_opf_case1354_pegase/datosNodos.csv
bus_i;type;Pd;Qd;Gs;Bs;area;Vm;Va;baseKV;zone;Vmax;Vmin;
3;1;151.0;48.8;0.0;4.69;0;1.00000;0.00000;220.0;5;1.10000;0.90000;
4;1;171.41;23.4;0.0;2.1;0;1.00000;0.00000;220.0;5;1.10000;0.90000;
10;1;134.0;24.7;0.0;12.44;0;1.00000;0.00000;220.0;5;1.10000;0.90000;
21;1;161.2;39.3;0.0;30.71;0;1.00000;0.00000;220.0;5;1.10000;0.90000;
22;1;0.0;-0.0;0.0;0.85;0;1.00000;0.00000;220.0;5;1.10000;0.90000;
26;1;167.3;54.8;0.0;110.54;0;1.00000;0.00000;380.0;5;1.10000;0.90000;
29;1;152.9;49.4;0.0;27.65;0;1.00000;0.00000;380.0;5;1.10000;0.90000;
44;1;-0.0;0.0;0.0;7.27;0;1.00000;0.00000;220.0;5;1.10000;0.90000;
53;1;48.65;16.1;0.0;7.14;0;1.00000;0.00000;220.0;5;1.10000;0.90000;
58;1;0.0;0.0;0.0;2.31;0;1.00000;0.00000;380.0;5;1.10000;0.90000;
59;1;119.2;20.7;0.0;3.31;0;1.00000;0.00000;220.0;5;1.10000;0.90000;
90;1;363.25;115.39;0.0;3.95;0;1.00000;0.00000;220.0;5;1.10000;0.90000;
96;1;-8.4;28.66;0.0;3.49;0;1.00000;0.00000;220.0;5;1.10000;0.90000;
113;1;-0.0;-0.0;0.0;6.532711;0;1.00000;0.00000;380.0;5;1.10000;0.90000;
115;1;0.0;-0.0;0.0;4.21;0;1.00000;0.00000;220.0;5;1.10000;0.90000;
118;1;704.53;-35.33;0.0;13.102834;0;1.00000;0.00000;380.0;5;1.10000;0.90000;
124;2;0.0;0.0;0.0;0.0;0;1.00000;0.00000;220.0;5;1.10000;0.90000;
128;1;23.73;12.7;0.0;0.52;0;1.00000;0.00000;220.0;5;1.10000;0.90000;
145;1;38.34;5.6;0.0;7.64;0;1.00000;0.00000;220.0;5;1.10000;0.90000;
148;1;32.34;12.0;0.0;6.1;0;1.00000;0.00000;220.0;5;1.10000;0.90000;
150;2;0.0;0.0;0.0;0.0;0;1.00000;0.00000;220.0;5;1.10000;0.90000;
163;1;147.76;32.73;0.0;8.34;0;1.00000;0.00000;220.0;5;1.10000;0.90000;
171;1;100.8;13.2;0.0;5.24;0;1.00000;0.00000;220.0;5;1.10000;0.90000;
174;1;370.5;-17.0;0.0;9.91;0;1.00000;0.00000;220.0;5;1.10000;0.90000;
184;1;-0.0;-0.0;0.0;2.42;0;1.00000;0.00000;220.0;5;1.10000;0.90000;
188;1;36.84;13.9;0.0;3.3;0;1.00000;0.00000;220.0;5;1.10000;0.90000;
195;1;73.14;21.55;0.0;8.52;0;1.00000;0.00000;220.0;5;1.10000;0.90000;
196;1;0.0;-0.0;0.0;12.48;0;1.00000;0.00000;220.0;5;1.10000;0.90000;
198;1;39.74;11.8;0.0;1.44;0;1.00000;0.00000;220.0;5;1.10000;0.90000;
207;1;321.98;84.4;0.0;1.34;0;1.00000;0.00000;220.0;5;1.10000;0.90000;
216;1;155.6;54.7;0.0;2.21;0;1.00000;0.00000;220.0;5;1.10000;0.90000;
217;1;105.2;0.1;0.0;7.36;0;1.00000;0.00000;220.0;5;1.10000;0.90000;
218;1;69.83;15.12;0.0;2.23;0;1.00000;0.00000;220.0;5;1.10000;0.90000;
221;2;0.0;0.0;0.0;0.0;0;1.00000;0.00000;380.0;5;1.10000;0.90000;
225;1;0.0;0.0;0.0;1.15;0;1.00000;0.00000;220.0;5;1.10000;0.90000;
280;1;119.6;29.6;0.0;5.34;0;1.00000;0.00000;220.0;5;1.10000;0.90000;
283;1;27.33;11.9;0.0;1.17;0;1.00000;0.00000;220.0;5;1.10000;0.90000;
292;1;13.82;1.4;0.0;0.7;0;1.00000;0.00000;220.0;5;1.10000;0.90000;
305;1;103.0;12.0;0.0;0.63;0;1.00000;0.00000;220.0;5;1.10000;0.90000;
306;1;-0.0;0.0;0.0;4.76;0;1.00000;0.00000;220.0;5;1.10000;0.90000;
314;1;163.1;46.3;0.0;10.6;0;1.00000;0.00000;220.0;5;1.10000;0.90000;
333;1;524.5;43.0;0.0;6.85;0;1.00000;0.00000;220.0;5;1.10000;0.90000;
338;2;0.0;0.0;0.0;0.0;0;1.00000;0.00000;220.0;5;1.10000;0.90000;
346;1;197.5;48.3;0.0;0.71;0;1.00000;0.00000;220.0;5;1.10000;0.90000;
350;1;110.4;26.2;0.0;5.62;0;1.00000;0.00000;220.0;5;1.10000;0.90000;
352;2;0.0;0.0;0.0;0.0;0;1.00000;0.00000;380.0;5;1.10000;0.90000;
367;1;65.17;-51.5;0.0;4.85;0;1.00000;0.00000;220.0;5;1.10000;0.90000;
401;1;56.5;36.29;0.0;3.08;0;1.00000;0.00000;220.0;5;1.10000;0.90000;
408;1;129.1;7.4;0.0;0.04;0;1.00000;0.00000;220.0;5;1.10000;0.90000;
410;1;170.89;50.38;0.0;6.44;0;1.00000;0.00000;220.0;5;1.10000;0.90000;
413;2;0.0;0.0;0.0;0.0;0;1.00000;0.00000;220.0;5;1.10000;0.90000;
416;1;70.68;13.5;0.0;6.96;0;1.00000;0.00000;220.0;5;1.10000;0.90000;
426;1;123.1;6.5;0.0;3.25;0;1.00000;0.00000;220.0;5;1.10000;0.90000;
432;1;-0.0;-0.0;0.0;68.517663;0;1.00000;0.00000;380.0;5;1.10000;0.90000;
444;1;0.0;-0.0;0.0;2.45;0;1.00000;0.00000;220.0;5;1.10000;0.90000;
449;1;0.0;0.0;0.0;29.42;0;1.00000;0.00000;380.0;5;1.10000;0.90000;
453;2;0.0;0.0;0.0;0.0;0;1.00000;0.00000;380.0;5;1.10000;0.90000;
455;1;274.32;5.66;0.0;13.24;0;1.00000;0.00000;220.0;5;1.10000;0.90000;
490;1;20.52;4.0;0.0;2.77;0;1.00000;0.00000;220.0;5;1.10000;0.90000;
500;1;144.4;35.5;0.0;7.66;0;1.00000;0.00000;220.0;5;1.10000;0.90000;
502;1;-0.0;0.0;0.0;1.96;0;1.00000;0.00000;220.0;5;1.10000;0.90000;
506;1;-0.0;0.0;0.0;0.4;0;1.00000;0.00000;380.0;5;1.10000;0.90000;
513;1;57.46;17.1;0.0;1.61;0;1.00000;0.00000;220.0;5;1.10000;0.90000;
516;2;0.0;0.0;0.0;0.0;0;1.00000;0.00000;220.0;5;1.10000;0.90000;
520;1;118.5;20.4;0.0;2.57;0;1.00000;0.00000;220.0;5;1.10000;0.90000;
549;1;0.0;-0.0;0.0;5.15;0;1.00000;0.00000;220.0;5;1.10000;0.90000;
554;1;0.0;-0.0;0.0;1.97;0;1.00000;0.00000;220.0;5;1.10000;0.90000;
556;1;16.52;9.0;0.0;1.17;0;1.00000;0.00000;220.0;5;1.10000;0.90000;
561;1;0.0;-0.0;0.0;0.32;0;1.00000;0.00000;220.0;5;1.10000;0.90000;
564;2;0.0;0.0;0.0;0.0;0;1.00000;0.00000;220.0;5;1.10000;0.90000;
575;1;0.0;-0.0;0.0;0.67;0;1.00000;0.00000;220.0;5;1.10000;0.90000;
583;2;0.0;0.0;0.0;0.0;0;1.00000;0.00000;220.0;5;1.10000;0.90000;
594;1;67.57;17.0;0.0;5.75;0;1.00000;0.00000;220.0;5;1.10000;0.90000;
601;1;140.6;42.6;0.0;5.71;0;1.00000;0.00000;220.0;5;1.10000;0.90000;
604;1;33.24;4.4;0.0;24.54;0;1.00000;0.00000;380.0;5;1.10000;0.90000;
608;1;150.9;10.4;0.0;4.77;0;1.00000;0.00000;220.0;5;1.10000;0.90000;
609;1;-0.0;-0.0;0.0;5.67;0;1.00000;0.00000;220.0;5;1.10000;0.90000;
615;2;0.0;0.0;0.0;0.0;0;1.00000;0.00000;220.0;5;1.10000;0.90000;
616;2;0.0;0.0;0.0;0.0;0;1.00000;0.00000;220.0;5;1.10000;0.90000;
619;1;72.88;14.4;0.0;2.96;0;1.00000;0.00000;220.0;5;1.10000;0.90000;
639;2;0.0;0.0;0.0;0.0;0;1.00000;0.00000;220.0;5;1.10000;0.90000;
641;1;45.32;18.5;0.0;0.74;0;1.00000;0.00000;220.0;5;1.10000;0.90000;
658;1;258.4;66.7;0.0;5.87;0;1.00000;0.00000;220.0;5;1.10000;0.90000;
661;1;-0.0;-0.0;0.0;0.6;0;1.00000;0.00000;380.0;5;1.10000;0.90000;
666;1;-5.61;-2.79;0.0;150.93;0;1.00000;0.00000;380.0;5;1.10000;0.90000;
678;1;232.1;89.8;0.0;0.09;0;1.00000;0.00000;220.0;5;1.10000;0.90000;
682;2;0.0;0.0;0.0;0.0;0;1.00000;0.00000;220.0;5;1.10000;0.90000;
687;1;-0.0;0.0;0.0;5.6;0;1.00000;0.00000;220.0;5;1.10000;0.90000;
707;1;83.99;21.2;0.0;5.36;0;1.00000;0.00000;220.0;5;1.10000;0.90000;
718;1;135.11;41.0;0.0;5.31;0;1.00000;0.00000;220.0;5;1.10000;0.90000;
720;1;-0.0;-0.0;0.0;23.554121;0;1.00000;0.00000;380.0;5;1.10000;0.90000;
726;1;400.3;189.9;0.0;0.53;0;1.00000;0.00000;220.0;5;1.10000;0.90000;
742;1;0.0;-0.0;0.0;2.83;0;1.00000;0.00000;220.0;5;1.10000;0.90000;
747;1;69.58;16.0;0.0;3.03;0;1.00000;0.00000;220.0;5;1.10000;0.90000;
749;2;0.0;0.0;0.0;0.0;0;1.00000;0.00000;220.0;5;1.10000;0.90000;
750;1;-0.0;-0.0;0.0;18.63;0;1.00000;0.00000;220.0;5;1.10000;0.90000;
757;2;0.0;0.0;0.0;0.0;0;1.00000;0.00000;380.0;5;1.10000;0.90000;
766;1;-0.0;0.0;0.0;7.85;0;1.00000;0.00000;220.0;5;1.10000;0.90000;
769;1;152.57;40.0;0.0;6.12;0;1.00000;0.00000;220.0;5;1.10000;0.90000;
772;1;343.9;141.9;0.0;5.55;0;1.00000;0.00000;220.0;5;1.10000;0.90000;
776;2;0.0;0.0;0.0;0.0;0;1.00000;0.00000;220.0;5;1.10000;0.90000;
778;2;0.0;0.0;0.0;0.0;0;1.00000;0.00000;220.0;5;1.10000;0.90000;
789;1;-0.0;-0.0;0.0;6.63;0;1.00000;0.00000;220.0;5;1.10000;0.90000;
795;2;0.0;0.0;0.0;0.0;0;1.00000;0.00000;220.0;5;1.10000;0.90000;
800;1;50.56;18.0;0.0;0.11;0;1.00000;0.00000;220.0;5;1.10000;0.90000;
803;2;0.0;0.0;0.0;0.0;0;1.00000;0.00000;220.0;5;1.10000;0.90000;
804;1;-0.0;-0.0;0.0;7.26;0;1.00000;0.00000;220.0;5;1.10000;0.90000;
805;1;124.5;29.6;0.0;15.4;0;1.00000;0.00000;220.0;5;1.10000;0.90000;
809;1;0.0;-0.0;0.0;58.088687;0;1.00000;0.00000;380.0;5;1.10000;0.90000;
819;1;0.0;-0.0;0.0;0.22;0;1.00000;0.00000;220.0;5;1.10000;0.90000;
823;2;0.0;0.0;0.0;0.0;0;1.00000;0.00000;380.0;5;1.10000;0.90000;
839;1;-0.0;-0.0;0.0;8.17514;0;1.00000;0.00000;380.0;5;1.10000;0.90000;
851;2;0.0;0.0;0.0;0.0;0;1.00000;0.00000;220.0;5;1.10000;0.90000;
858;2;0.0;0.0;0.0;0.0;0;1.00000;0.00000;380.0;5;1.10000;0.90000;
870;1;110.0;3.4;0.0;11.95;0;1.00000;0.00000;220.0;5;1.10000;0.90000;
871;1;108.89;-21.76;0.0;3.72;0;1.00000;0.00000;220.0;5;1.10000;0.90000;
883;1;192.5;78.3;0.0;6.65;0;1.00000;0.00000;220.0;5;1.10000;0.90000;
891;2;0.0;0.0;0.0;0.0;0;1.00000;0.00000;380.0;5;1.10000;0.90000;
892;1;-0.0;-0.0;0.0;9.1;0;1.00000;0.00000;220.0;5;1.10000;0.90000;
900;1;0.0;0.0;0.0;0.15;0;1.00000;0.00000;220.0;5;1.10000;0.90000;
903;1;82.69;20.1;0.0;1.36;0;1.00000;0.00000;220.0;5;1.10000;0.90000;
905;1;631.71;-54.16;0.0;7.534129;0;1.00000;0.00000;380.0;5;1.10000;0.90000;
907;1;-0.0;-0.0;0.0;0.05;0;1.00000;0.00000;220.0;5;1.10000;0.90000;
908;1;125.9;-0.5;0.0;0.21;0;1.00000;0.00000;220.0;5;1.10000;0.90000;
920;1;34.44;8.5;0.0;1.11;0;1.00000;0.00000;220.0;5;1.10000;0.90000;
923;1;62.07;14.7;0.0;4.84;0;1.00000;0.00000;220.0;5;1.10000;0.90000;
933;1;-0.0;0.0;0.0;22.75;0;1.00000;0.00000;220.0;5;1.10000;0.90000;
935;1;-0.0;0.0;0.0;9.46;0;1.00000;0.00000;220.0;5;1.10000;0.90000;
953;1;108.7;-12.15;0.0;37.11;0;1.00000;0.00000;380.0;5;1.10000;0.90000;
954;1;66.27;13.6;0.0;0.67;0;1.00000;0.00000;220.0;5;1.10000;0.90000;
960;1;-0.0;-0.0;0.0;108.728602;0;1.00000;0.00000;380.0;5;1.10000;0.90000;
964;1;88.5;16.5;0.0;146.44;0;1.00000;0.00000;380.0;5;1.10000;0.90000;
972;2;0.0;0.0;0.0;0.0;0;1.00000;0.00000;380.0;5;1.30000;0.70000;
980;1;14.71;4.6;0.0;7.88;0;1.00000;0.00000;220.0;5;1.10000;0.90000;
1001;2;0.0;0.0;0.0;0.0;0;1.00000;0.00000;220.0;5;1.10000;0.90000;
1002;2;0.0;0.0;0.0;0.0;0;1.00000;0.00000;220.0;5;1.10000;0.90000;
1005;1;0.0;0.0;0.0;0.81;0;1.00000;0.00000;220.0;5;1.10000;0.90000;
1015;1;44.55;0.0;0.0;4.78;0;1.00000;0.00000;220.0;5;1.10000;0.90000;
1026;1;201.4;53.0;0.0;9.67;0;1.00000;0.00000;220.0;5;1.10000;0.90000;
1027;1;-5.91;-2.33;0.0;30.393595;0;1.00000;0.00000;380.0;5;1.10000;0.90000;
1033;1;26.33;5.3;0.0;4.31;0;1.00000;0.00000;220.0;5;1.10000;0.90000;
1035;1;382.5;57.9;0.0;8.16;0;1.00000;0.00000;220.0;5;1.10000;0.90000;
1039;1;34.64;-0.0;0.0;0.91;0;1.00000;0.00000;220.0;5;1.10000;0.90000;
1040;1;31.94;8.8;0.0;3.79;0;1.00000;0.00000;220.0;5;1.10000;0.90000;
1043;2;0.0;0.0;0.0;0.0;0;1.00000;0.00000;380.0;5;1.10000;0.90000;
1051;1;-0.0;0.0;0.0;3.79;0;1.00000;0.00000;220.0;5;1.10000;0.90000;
1077;1;-0.0;0.0;0.0;0.1;0;1.00000;0.00000;220.0;5;1.10000;0.90000;
1078;1;-0.0;-0.0;0.0;4.74;0;1.00000;0.00000;220.0;5;1.10000;0.90000;
1081;1;277.86;58.95;0.0;182.880644;0;1.00000;0.00000;380.0;5;1.10000;0.90000;
1083;2;0.0;0.0;0.0;0.0;0;1.00000;0.00000;220.0;5;1.10000;0.90000;
1090;1;56.06;18.7;0.0;4.24;0;1.00000;0.00000;220.0;5;1.10000;0.90000;
1093;2;0.0;0.0;0.0;0.0;0;1.00000;0.00000;380.0;5;1.10000;0.90000;
1096;1;0.0;-0.0;0.0;0.16;0;1.00000;0.00000;220.0;5;1.10000;0.90000;
1100;2;0.0;0.0;0.0;0.0;0;1.00000;0.00000;220.0;5;1.10000;0.90000;
1101;1;-0.0;-0.0;0.0;2.05;0;1.00000;0.00000;220.0;5;1.10000;0.90000;
1102;2;0.0;0.0;0.0;0.0;0;1.00000;0.00000;220.0;5;1.10000;0.90000;
1105;1;29.83;7.3;0.0;6.49;0;1.00000;0.00000;220.0;5;1.10000;0.90000;
1111;1;0.0;0.0;0.0;1.1;0;1.00000;0.00000;220.0;5;1.10000;0.90000;
1129;1;190.47;55.03;0.0;6.7;0;1.00000;0.00000;220.0;5;1.10000;0.90000;
1136;1;16.22;2.0;0.0;0.71;0;1.00000;0.00000;220.0;5;1.10000;0.90000;
1137;1;-0.0;-0.0;0.0;0.05;0;1.00000;0.00000;220.0;5;1.10000;0.90000;
1146;1;32.84;-0.0;0.0;1.41;0;1.00000;0.00000;220.0;5;1.10000;0.90000;
1151;1;-0.0;-0.0;0.0;18.82;0;1.00000;0.00000;220.0;5;1.10000;0.90000;
1153;1;12.41;3.9;0.0;2.23;0;1.00000;0.00000;220.0;5;1.10000;0.90000;
1156;1;65.67;24.0;0.0;9.95;0;1.00000;0.00000;220.0;5;1.10000;0.90000;
1159;1;112.4;13.0;0.0;3.99;0;1.00000;0.00000;220.0;5;1.10000;0.90000;
1172;1;-0.0;-0.0;0.0;2.3;0;1.00000;0.00000;220.0;5;1.10000;0.90000;
1179;1;86.6;23.4;0.0;0.39;0;1.00000;0.00000;220.0;5;1.10000;0.90000;
1183;1;199.4;-19.9;0.0;6.68;0;1.00000;0.00000;220.0;5;1.10000;0.90000;
1187;1;67.57;21.2;0.0;5.71;0;1.00000;0.00000;220.0;5;1.10000;0.90000;
1188;1;30.93;6.6;0.0;9.09;0;1.00000;0.00000;220.0;5;1.10000;0.90000;
1194;1;129.6;13.3;0.0;13.98;0;1.00000;0.00000;380.0;5;1.10000;0.90000;
1198;1;0.0;0.0;0.0;30.637696;0;1.00000;0.00000;380.0;5;1.10000;0.90000;
1201;1;114.1;23.5;0.0;1.08;0;1.00000;0.00000;220.0;5;1.10000;0.90000;
1216;1;0.0;0.0;0.0;4.93;0;1.00000;0.00000;220.0;5;1.10000;0.90000;
1233;1;0.0;-0.0;0.0;1.72;0;1.00000;0.00000;220.0;5;1.10000;0.90000;
1234;1;71.78;17.9;0.0;1.96;0;1.00000;0.00000;220.0;5;1.10000;0.90000;
1237;2;0.0;0.0;0.0;0.0;0;1.00000;0.00000;380.0;5;1.30000;0.70000;
1248;1;0.0;0.0;0.0;1.17;0;1.00000;0.00000;220.0;5;1.10000;0.90000;
1249;1;348.93;26.47;0.0;9.36;0;1.00000;0.00000;380.0;5;1.10000;0.90000;
1251;2;0.0;0.0;0.0;0.0;0;1.00000;0.00000;380.0;5;1.10000;0.90000;
1262;1;-0.0;0.0;0.0;10.73;0;1.00000;0.00000;220.0;5;1.10000;0.90000;
1265;1;173.0;-21.3;0.0;5.93;0;1.00000;0.00000;220.0;5;1.10000;0.90000;
1275;1;52.46;2.9;0.0;0.35;0;1.00000;0.00000;220.0;5;1.10000;0.90000;
1295;2;0.0;0.0;0.0;0.0;0;1.00000;0.00000;220.0;5;1.10000;0.90000;
1301;1;479.0;99.2;0.0;10.68;0;1.00000;0.00000;220.0;5;1.10000;0.90000;
1305;1;-0.0;-0.0;0.0;4.34;0;1.00000;0.00000;220.0;5;1.10000;0.90000;
1311;1;37.94;15.2;0.0;35.31;0;1.00000;0.00000;380.0;5;1.10000;0.90000;
1326;1;0.0;0.0;0.0;0.98;0;1.00000;0.00000;220.0;5;1.10000;0.90000;
1334;1;0.0;0.0;0.0;0.59;0;1.00000;0.00000;220.0;5;1.10000;0.90000;
1341;2;0.0;0.0;0.0;0.0;0;1.00000;0.00000;220.0;5;1.10000;0.90000;
1343;1;-0.0;-0.0;0.0;58.3;0;1.00000;0.00000;380.0;5;1.10000;0.90000;
1354;2;0.0;0.0;0.0;0.0;0;1.00000;0.00000;220.0;5;1.10000;0.90000;
1355;1;-3.29;-1.32;0.0;190.704588;0;1.00000;0.00000;380.0;5;1.10000;0.90000;
1364;1;40.85;14.5;0.0;0.59;0;1.00000;0.00000;220.0;5;1.10000;0.90000;
1380;1;145.2;21.4;0.0;1.09;0;1.00000;0.00000;220.0;5;1.10000;0.90000;
1394;1;30.93;7.6;0.0;4.69;0;1.00000;0.00000;220.0;5;1.10000;0.90000;
1397;1;0.0;-0.0;0.0;2.14;0;1.00000;0.00000;220.0;5;1.10000;0.90000;
1398;1;196.7;44.2;0.0;0.1;0;1.00000;0.00000;220.0;5;1.10000;0.90000;
1401;1;11.91;2.9;0.0;5.27;0;1.00000;0.00000;220.0;5;1.10000;0.90000;
...
